data_argyrodite
_symmetry_space_group_name_H-M   'F -4 3 m'
_cell_length_a   9.924
_cell_length_b   9.924
_cell_length_c   9.924
_cell_angle_alpha   90
_cell_angle_beta   90
_cell_angle_gamma   90
_symmetry_Int_Tables_number   216
_cell_volume   977.329

loop_
_symmetry_equiv_pos_as_xyz
   'x, y, z'
   'x, 1/2+y, 1/2+z'
   '1/2+x, y, 1/2+z'
   '1/2+x, 1/2+y, z'
   '-z, x, -y'
   '-z, 1/2+x, 1/2-y'
   '1/2-z, x, 1/2-y'
   '1/2-z, 1/2+x, -y'
   '-y, z, -x'
   '-y, 1/2+z, 1/2-x'
   '1/2-y, z, 1/2-x'
   '1/2-y, 1/2+z, -x'
   '-x, y, -z'
   '-x, 1/2+y, 1/2-z'
   '1/2-x, y, 1/2-z'
   '1/2-x, 1/2+y, -z'
   'x, -z, -y'
   'x, 1/2-z, 1/2-y'
   '1/2+x, -z, 1/2-y'
   '1/2+x, 1/2-z, -y'
   'z, -y, -x'
   'z, 1/2-y, 1/2-x'
   '1/2+z, -y, 1/2-x'
   '1/2+z, 1/2-y, -x'
   'y, -x, -z'
   'y, 1/2-x, 1/2-z'
   '1/2+y, -x, 1/2-z'
   '1/2+y, 1/2-x, -z'
   'x, z, y'
   'x, 1/2+z, 1/2+y'
   '1/2+x, z, 1/2+y'
   '1/2+x, 1/2+z, y'
   'z, y, x'
   'z, 1/2+y, 1/2+x'
   '1/2+z, y, 1/2+x'
   '1/2+z, 1/2+y, x'
   'y, x, z'
   'y, 1/2+x, 1/2+z'
   '1/2+y, x, 1/2+z'
   '1/2+y, 1/2+x, z'
   '-z, -x, y'
   '-z, 1/2-x, 1/2+y'
   '1/2-z, -x, 1/2+y'
   '1/2-z, 1/2-x, y'
   '-y, -z, x'
   '-y, 1/2-z, 1/2+x'
   '1/2-y, -z, 1/2+x'
   '1/2-y, 1/2-z, x'
   '-x, -y, z'
   '-x, 1/2-y, 1/2+z'
   '1/2-x, -y, 1/2+z'
   '1/2-x, 1/2-y, z'
   'z, -x, -y'
   'z, 1/2-x, 1/2-y'
   '1/2+z, -x, 1/2-y'
   '1/2+z, 1/2-x, -y'
   'y, -z, -x'
   'y, 1/2-z, 1/2-x'
   '1/2+y, -z, 1/2-x'
   '1/2+y, 1/2-z, -x'
   'x, -y, -z'
   'x, 1/2-y, 1/2-z'
   '1/2+x, -y, 1/2-z'
   '1/2+x, 1/2-y, -z'
   '-x, z, -y'
   '-x, 1/2+z, 1/2-y'
   '1/2-x, z, 1/2-y'
   '1/2-x, 1/2+z, -y'
   '-z, y, -x'
   '-z, 1/2+y, 1/2-x'
   '1/2-z, y, 1/2-x'
   '1/2-z, 1/2+y, -x'
   '-y, x, -z'
   '-y, 1/2+x, 1/2-z'
   '1/2-y, x, 1/2-z'
   '1/2-y, 1/2+x, -z'
   '-x, -z, y'
   '-x, 1/2-z, 1/2+y'
   '1/2-x, -z, 1/2+y'
   '1/2-x, 1/2-z, y'
   '-z, -y, x'
   '-z, 1/2-y, 1/2+x'
   '1/2-z, -y, 1/2+x'
   '1/2-z, 1/2-y, x'
   '-y, -x, z'
   '-y, 1/2-x, 1/2+z'
   '1/2-y, -x, 1/2+z'
   '1/2-y, 1/2-x, z'
   'z, x, y'
   'z, 1/2+x, 1/2+y'
   '1/2+z, x, 1/2+y'
   '1/2+z, 1/2+x, y'
   'y, z, x'
   'y, 1/2+z, 1/2+x'
   '1/2+y, z, 1/2+x'
   '1/2+y, 1/2+z, x'

loop_
 _atom_site_type_symbol
 _atom_site_label
 _atom_site_symmetry_multiplicity
 _atom_site_fract_x
 _atom_site_fract_y
 _atom_site_fract_z
 _atom_site_occupancy
  Li  48h  48  0.183  0.183  0.024  1
