data_lagp
# http://www.crystallography.net/cod/7221286.html
_symmetry_space_group_name_H-M   'R -3 c :H'
_cell_length_a                   8.4435
_cell_length_b                   8.4435
_cell_length_c                   21.636
_cell_angle_alpha   90
_cell_angle_beta    90
_cell_angle_gamma  120
_symmetry_Int_Tables_number   167
_cell_volume                     1335.834

loop_
_symmetry_equiv_pos_as_xyz
   'x, y, z'
   '-y, x-y, z'
   'y-x, -x, z'
   '-y, -x, 1/2+z'
   'x, x-y, 1/2+z'
   'y-x, y, 1/2+z'
   '-x, -y, -z'
   'y, y-x, -z'
   'x-y, x, -z'
   'y, x, 1/2-z'
   '-x, y-x, 1/2-z'
   'x-y, -y, 1/2-z'
   '1/3+x, 2/3+y, 2/3+z'
   '2/3+x, 1/3+y, 1/3+z'
   '1/3-y, 2/3+x-y, 2/3+z'
   '2/3-y, 1/3+x-y, 1/3+z'
   '1/3-x+y, 2/3-x, 2/3+z'
   '2/3-x+y, 1/3-x, 1/3+z'
   '1/3-y, 2/3-x, 1/6+z'
   '2/3-y, 1/3-x, 5/6+z'
   '1/3+x, 2/3+x-y, 1/6+z'
   '2/3+x, 1/3+x-y, 5/6+z'
   '1/3-x+y, 2/3+y, 1/6+z'
   '2/3-x+y, 1/3+y, 5/6+z'
   '1/3-x, 2/3-y, 2/3-z'
   '2/3-x, 1/3-y, 1/3-z'
   '1/3+y, 2/3-x+y, 2/3-z'
   '2/3+y, 1/3-x+y, 1/3-z'
   '1/3+x-y, 2/3+x, 2/3-z'
   '2/3+x-y, 1/3+x, 1/3-z'
   '1/3+y, 2/3+x, 1/6-z'
   '2/3+y, 1/3+x, 5/6-z'
   '1/3-x, 2/3-x+y, 1/6-z'
   '2/3-x, 1/3-x+y, 5/6-z'
   '1/3+x-y, 2/3-y, 1/6-z'
   '2/3+x-y, 1/3-y, 5/6-z'

loop_
 _atom_site_type_symbol
 _atom_site_label
 _atom_site_symmetry_multiplicity
 _atom_site_fract_x
 _atom_site_fract_y
 _atom_site_fract_z
 _atom_site_occupancy
   Li   6b   6  0.00  0.00  0.00  1.00
   Li  18e  18  0.66  0.00  0.25  1.00
