data_li3ps4_beta
# https://doi.org/10.1016/j.ssi.2010.10.001
_symmetry_space_group_name_H-M   'P n m a'
_cell_length_a                   12.8190(5)
_cell_length_b                   8.2195(4)
_cell_length_c                   6.1236(2)
_cell_angle_alpha                90
_cell_angle_beta                 90
_cell_angle_gamma                90
_symmetry_Int_Tables_number   62
_cell_volume                     645.23(5)

loop_
_symmetry_equiv_pos_as_xyz
   'x, y, z'
   '-x+1/2, -y, z+1/2'
   'x+1/2, -y+1/2, -z+1/2'
   '-x, y+1/2, -z'
   '-x, -y, -z'
   'x+1/2, y, -z+1/2'
   '-x+1/2, y+1/2, z+1/2'
   'x, -y+1/2, z'

loop_
 _atom_site_type_symbol
 _atom_site_label
 _atom_site_symmetry_multiplicity
 _atom_site_fract_x
 _atom_site_fract_y
 _atom_site_fract_z
 _atom_site_occupancy
   Li  8d  8  0.3562  0.013  0.439   1
   Li  4b  4  0       0      0.5     1
   Li  4c  4  0.999   0.25   0.889   1
